<?xml version="1.0" encoding="UTF-8"?>
<configuration>
    <input>
        <net-file value="single.net.xml"/>
        <route-files value="single_vertical.rou.xml"/>
    </input>
    <time>
        <begin value="0"/>
    </time>
    <report>
        <no-step-log value="true"/>
    </report>
</configuration>